Version 4
SHEET 1 888 680
WIRE -16 -48 -272 -48
WIRE 64 -48 -16 -48
WIRE 208 -48 144 -48
WIRE 272 -48 208 -48
WIRE 480 -48 336 -48
WIRE 624 -48 480 -48
WIRE 784 -48 624 -48
WIRE 480 -16 480 -48
WIRE 624 -16 624 -48
WIRE 784 -16 784 -48
WIRE -16 16 -16 -48
WIRE 624 80 624 48
WIRE 208 96 208 -48
WIRE 208 96 112 96
WIRE 784 112 784 64
WIRE 480 160 480 64
WIRE 480 160 112 160
WIRE -272 176 -272 -48
WIRE 480 176 480 160
WIRE 192 224 112 224
WIRE 304 224 272 224
WIRE 304 272 304 224
WIRE 480 288 480 256
WIRE -272 320 -272 256
WIRE -16 320 -16 304
WIRE 304 368 304 336
FLAG -272 320 0
FLAG -16 320 0
FLAG 304 368 0
FLAG 480 288 0
FLAG 624 80 0
FLAG 784 112 0
SYMBOL voltage -272 160 R0
WINDOW 123 0 0 Left 2
WINDOW 39 0 0 Left 2
SYMATTR InstName V2
SYMATTR Value 3.3
SYMBOL PowerProducts\\LT1072 -16 160 R0
SYMATTR InstName U1
SYMBOL res 288 208 R90
WINDOW 0 0 56 VBottom 2
WINDOW 3 32 56 VTop 2
SYMATTR InstName R1
SYMATTR Value 5K
SYMBOL cap 288 272 R0
SYMATTR InstName C1
SYMATTR Value 1µF
SYMBOL ind 48 -32 R270
WINDOW 0 32 56 VTop 2
WINDOW 3 5 56 VBottom 2
SYMATTR InstName L1
SYMATTR Value 22µH
SYMBOL diode 272 -32 R270
WINDOW 0 32 32 VTop 2
WINDOW 3 0 32 VBottom 2
SYMATTR InstName D1
SYMBOL res 464 -32 R0
SYMATTR InstName R2
SYMATTR Value 10K
SYMBOL res 464 160 R0
SYMATTR InstName R3
SYMATTR Value 3.4K
SYMBOL cap 608 -16 R0
SYMATTR InstName C2
SYMATTR Value 100µF
SYMBOL current 784 -16 R0
WINDOW 123 0 0 Left 2
WINDOW 39 0 0 Left 2
SYMATTR InstName I1
SYMATTR Value 100m
TEXT -304 376 Left 2 !.tran 0 0.004 0
